system_data/pdn/IEEE33Loads.DSS

New Load.Load1   Bus=1   Phases=3   Conn=Wye  Model=1  kV=12.66  kW=0    kvar=0        vminpu=0.95 vmaxpu=1.05
New Load.Load2   Bus=2   Phases=3   Conn=Wye  Model=1  kV=12.66  kW=100  kvar=60       vminpu=0.95 vmaxpu=1.05
New Load.Load3   Bus=3   Phases=3   Conn=Wye  Model=1  kV=12.66  kW=90   kvar=40       vminpu=0.95 vmaxpu=1.05
New Load.Load4   Bus=4   Phases=3   Conn=Wye  Model=1  kV=12.66  kW=120  kvar=80       vminpu=0.95 vmaxpu=1.05
New Load.Load5   Bus=5   Phases=3   Conn=Wye  Model=1  kV=12.66  kW=60   kvar=30       vminpu=0.95 vmaxpu=1.05
New Load.Load6   Bus=6   Phases=3   Conn=Wye  Model=1  kV=12.66  kW=60   kvar=20       vminpu=0.95 vmaxpu=1.05
New Load.Load7   Bus=7   Phases=3   Conn=Wye  Model=1  kV=12.66  kW=200  kvar=100      vminpu=0.95 vmaxpu=1.05
New Load.Load8   Bus=8   Phases=3   Conn=Wye  Model=1  kV=12.66  kW=200  kvar=100      vminpu=0.95 vmaxpu=1.05
New Load.Load9   Bus=9   Phases=3   Conn=Wye  Model=1  kV=12.66  kW=60   kvar=20       vminpu=0.95 vmaxpu=1.05
New Load.Load10  Bus=10  Phases=3   Conn=Wye  Model=1  kV=12.66  kW=60   kvar=20       vminpu=0.95 vmaxpu=1.05
New Load.Load11  Bus=11  Phases=3   Conn=Wye  Model=1  kV=12.66  kW=45   kvar=30       vminpu=0.95 vmaxpu=1.05
New Load.Load12  Bus=12  Phases=3   Conn=Wye  Model=1  kV=12.66  kW=60   kvar=35       vminpu=0.95 vmaxpu=1.05
New Load.Load13  Bus=13  Phases=3   Conn=Wye  Model=1  kV=12.66  kW=60   kvar=35       vminpu=0.95 vmaxpu=1.05
New Load.Load14  Bus=14  Phases=3   Conn=Wye  Model=1  kV=12.66  kW=120  kvar=80       vminpu=0.95 vmaxpu=1.05
New Load.Load15  Bus=15  Phases=3   Conn=Wye  Model=1  kV=12.66  kW=60   kvar=10       vminpu=0.95 vmaxpu=1.05
New Load.Load16  Bus=16  Phases=3   Conn=Wye  Model=1  kV=12.66  kW=60   kvar=20       vminpu=0.95 vmaxpu=1.05
New Load.Load17  Bus=17  Phases=3   Conn=Wye  Model=1  kV=12.66  kW=60   kvar=20       vminpu=0.95 vmaxpu=1.05
New Load.Load18  Bus=18  Phases=3   Conn=Wye  Model=1  kV=12.66  kW=90   kvar=40       vminpu=0.95 vmaxpu=1.05
New Load.Load19  Bus=19  Phases=3   Conn=Wye  Model=1  kV=12.66  kW=90   kvar=40       vminpu=0.95 vmaxpu=1.05
New Load.Load20  Bus=20  Phases=3   Conn=Wye  Model=1  kV=12.66  kW=90   kvar=40       vminpu=0.95 vmaxpu=1.05
New Load.Load21  Bus=21  Phases=3   Conn=Wye  Model=1  kV=12.66  kW=90   kvar=40       vminpu=0.95 vmaxpu=1.05
New Load.Load22  Bus=22  Phases=3   Conn=Wye  Model=1  kV=12.66  kW=90   kvar=40       vminpu=0.95 vmaxpu=1.05
New Load.Load23  Bus=23  Phases=3   Conn=Wye  Model=1  kV=12.66  kW=90   kvar=50       vminpu=0.95 vmaxpu=1.05
New Load.Load24  Bus=24  Phases=3   Conn=Wye  Model=1  kV=12.66  kW=420  kvar=200      vminpu=0.95 vmaxpu=1.05
New Load.Load25  Bus=25  Phases=3   Conn=Wye  Model=1  kV=12.66  kW=420  kvar=200      vminpu=0.95 vmaxpu=1.05
New Load.Load26  Bus=26  Phases=3   Conn=Wye  Model=1  kV=12.66  kW=60   kvar=25       vminpu=0.95 vmaxpu=1.05
New Load.Load27  Bus=27  Phases=3   Conn=Wye  Model=1  kV=12.66  kW=60   kvar=25       vminpu=0.95 vmaxpu=1.05
New Load.Load28  Bus=28  Phases=3   Conn=Wye  Model=1  kV=12.66  kW=60   kvar=20       vminpu=0.95 vmaxpu=1.05
New Load.Load29  Bus=29  Phases=3   Conn=Wye  Model=1  kV=12.66  kW=120  kvar=70       vminpu=0.95 vmaxpu=1.05
New Load.Load30  Bus=30  Phases=3   Conn=Wye  Model=1  kV=12.66  kW=200  kvar=600      vminpu=0.95 vmaxpu=1.05
New Load.Load31  Bus=31  Phases=3   Conn=Wye  Model=1  kV=12.66  kW=150  kvar=70       vminpu=0.95 vmaxpu=1.05
New Load.Load32  Bus=32  Phases=3   Conn=Wye  Model=1  kV=12.66  kW=210  kvar=100      vminpu=0.95 vmaxpu=1.05
New Load.Load33  Bus=33  Phases=3   Conn=Wye  Model=1  kV=12.66  kW=60   kvar=40       vminpu=0.95 vmaxpu=1.05
